                                  MODFLOW-2005     
      U.S. GEOLOGICAL SURVEY MODULAR FINITE-DIFFERENCE GROUND-WATER FLOW MODEL
                            VERSION 1.12.00 2/3/2017

 LIST FILE: tothe.list
                         UNIT    2
  BAS PACKAGE FILE HAS NOT BEEN OPENED.
